Questionable use of curly braces in "b§r1 n001 n002 r={350-(0.7084*sin(10*time))}"
    Error: undefined symbol in: "350-(0.7084*sin(10*[time]))"
Questionable use of curly braces in "b§r2 n001 n003 r={350+(0.7084*sin(10*time))}"
    Error: undefined symbol in: "350+(0.7084*sin(10*[time]))"
Questionable use of curly braces in "b§r3 n002 0 r={350+(0.7084*sin(10*time))}"
    Error: undefined symbol in: "350+(0.7084*sin(10*[time]))"
Questionable use of curly braces in "b§r4 n003 0 r={350-(0.7084*sin(10*time))}"
    Error: undefined symbol in: "350-(0.7084*sin(10*[time]))"
Circuit: * C:\Users\techw\Documents\Baja SAE\GitHub\not-code\LTspice\Strain Amplification Circuit\Rev. C\WheatstoneAndAmplifier - C.asc

Direct Newton iteration for .op point succeeded.

Date: Thu Dec 12 19:59:35 2019
Total elapsed time: 24.088 seconds.

tnom = 27
temp = 27
method = modified trap
totiter = 800646
traniter = 800619
tranpoints = 400120
accept = 400090
rejected = 30
matrix size = 43
fillins = 36
solver = Normal
Matrix Compiler1: 3.62 KB object code size  2.6/1.3/[0.5]
Matrix Compiler2: 4.05 KB object code size  1.0/1.7/[0.5]

