Questionable use of curly braces in "b§r1 n001 n002 r={350-(1.54*sin(10*time))}"
    Error: undefined symbol in: "350-(1.54*sin(10*[time]))"
Questionable use of curly braces in "b§r2 n001 n003 r={350+(1.54*sin(10*time))}"
    Error: undefined symbol in: "350+(1.54*sin(10*[time]))"
Questionable use of curly braces in "b§r3 n002 0 r={350+(1.54*sin(10*time))}"
    Error: undefined symbol in: "350+(1.54*sin(10*[time]))"
Questionable use of curly braces in "b§r4 n003 0 r={350-(1.54*sin(10*time))}"
    Error: undefined symbol in: "350-(1.54*sin(10*[time]))"
Circuit: * C:\Users\techw\Documents\Baja SAE\GitHub\not-code\LTspice\Strain Amplification Circuit\Rev. C\WheatstoneAndAmplifier - C.asc

WARNING: Less than two connections to node 3.3V.  This node is used by V1.
Direct Newton iteration for .op point succeeded.

Date: Mon Feb 03 16:32:54 2020
Total elapsed time: 29.502 seconds.

tnom = 27
temp = 27
method = modified trap
totiter = 801346
traniter = 801323
tranpoints = 400279
accept = 400209
rejected = 70
matrix size = 43
fillins = 48
solver = Normal
Matrix Compiler1: 4.70 KB object code size  4.7/2.1/[0.9]
Matrix Compiler2: 4.20 KB object code size  1.5/2.1/[1.0]

