Questionable use of curly braces in "b§r1 n001 n002 r={350-(1.54*sin(10*time))}"
    Error: undefined symbol in: "350-(1.54*sin(10*[time]))"
Questionable use of curly braces in "b§r2 n001 n003 r={350+(1.54*sin(10*time))}"
    Error: undefined symbol in: "350+(1.54*sin(10*[time]))"
Questionable use of curly braces in "b§r3 n002 0 r={350+(1.54*sin(10*time))}"
    Error: undefined symbol in: "350+(1.54*sin(10*[time]))"
Questionable use of curly braces in "b§r4 n003 0 r={350-(1.54*sin(10*time))}"
    Error: undefined symbol in: "350-(1.54*sin(10*[time]))"
Circuit: * C:\Users\techw\Documents\Baja SAE\GitHub\not-code\LTspice\Strain Amplification Circuit\Rev. C\WheatstoneAndAmplifier - C.asc

WARNING: Less than two connections to node 3.3V.  This node is used by V1.
Direct Newton iteration for .op point succeeded.

Date: Mon Jan 13 21:31:42 2020
Total elapsed time: 16.859 seconds.

tnom = 27
temp = 27
method = modified trap
totiter = 801265
traniter = 801242
tranpoints = 400259
accept = 400194
rejected = 65
matrix size = 42
fillins = 44
solver = Normal
Matrix Compiler1: 4.37 KB object code size  1.9/1.0/[0.5]
Matrix Compiler2: 4.04 KB object code size  0.8/1.0/[0.7]

