Questionable use of curly braces in "b§r1 n001 n002 r={350-(1.54*sin(10*time))}"
    Error: undefined symbol in: "350-(1.54*sin(10*[time]))"
Questionable use of curly braces in "b§r2 n001 n003 r={350+(1.54*sin(10*time))}"
    Error: undefined symbol in: "350+(1.54*sin(10*[time]))"
Questionable use of curly braces in "b§r3 n002 0 r={350+(1.54*sin(10*time))}"
    Error: undefined symbol in: "350+(1.54*sin(10*[time]))"
Questionable use of curly braces in "b§r4 n003 0 r={350-(1.54*sin(10*time))}"
    Error: undefined symbol in: "350-(1.54*sin(10*[time]))"
Circuit: * C:\Users\techw\Documents\Baja SAE\GitHub\not-code\LTspice\Strain Amplification Circuit\Rev. C\WheatstoneAndAmplifier - C.asc

Direct Newton iteration for .op point succeeded.

Date: Mon Jan 13 21:10:06 2020
Total elapsed time: 16.137 seconds.

tnom = 27
temp = 27
method = modified trap
totiter = 800486
traniter = 800459
tranpoints = 400077
accept = 400059
rejected = 18
matrix size = 43
fillins = 36
solver = Normal
Matrix Compiler1: 3.58 KB object code size  1.6/0.9/[0.4]
Matrix Compiler2: 4.01 KB object code size  0.8/1.0/[0.5]

