Questionable use of curly braces in "b§r1 n001 n002 r={350-(0.7084*sin(10*time))}"
    Error: undefined symbol in: "350-(0.7084*sin(10*[time]))"
Questionable use of curly braces in "b§r2 n001 n003 r={350+(0.7084*sin(10*time))}"
    Error: undefined symbol in: "350+(0.7084*sin(10*[time]))"
Questionable use of curly braces in "b§r3 n002 0 r={350+(0.7084*sin(10*time))}"
    Error: undefined symbol in: "350+(0.7084*sin(10*[time]))"
Questionable use of curly braces in "b§r4 n003 0 r={350-(0.7084*sin(10*time))}"
    Error: undefined symbol in: "350-(0.7084*sin(10*[time]))"
Circuit: * C:\Users\techw\Documents\Baja SAE\GitHub\not-code\LTspice\Strain Amplification Circuit\WheatstoneAndAmplifier - B.asc

Direct Newton iteration for .op point succeeded.

Date: Tue Nov 26 14:31:36 2019
Total elapsed time: 16.075 seconds.

tnom = 27
temp = 27
method = modified trap
totiter = 800064
traniter = 800034
tranpoints = 400018
accept = 400018
rejected = 0
matrix size = 43
fillins = 38
solver = Normal
Matrix Compiler1: 3.87 KB object code size  0.9/0.4/[0.2]
Matrix Compiler2: off  [0.4]/0.5/0.9

